#!/sbin/sh

# Default permissions
umask 022

# Initial cleanup
TMPDIR=/dev/tmp
rm -rf $TMPDIR 2>/dev/null
mkdir -p $TMPDIR

# echo before loading util_functions
ui_print() { echo "$1"; }

require_new_magisk() {
  ui_print "*******************************"
  ui_print " Please install Magisk v19.0+! "
  ui_print "*******************************"
  exit 1
}

is_legacy_script() {
  # Parse install.sh and see if these are declared
  # If all pass then assume we are running legacy install.sh
  unzip -o "$ZIPFILE" install.sh -d $TMPDIR >&2
  local INS=$TMPDIR/install.sh
  [ -f $INS ] || return 1
  grep -q '^SKIPMOUNT=' $INS || return 1
  grep -q '^on_install()' $INS || return 1
  grep -q '^set_permissions()' $INS || return 1
  return 0
}

print_modname() {
  local len
  len=`echo -n $MODNAME | wc -c`
  len=$((len + 2))
  local pounds=`printf "%${len}s" | tr ' ' '*'`
  ui_print "$pounds"
  ui_print " $MODNAME "
  ui_print "$pounds"
  ui_print "*******************"
  ui_print " Powered by Magisk "
  ui_print "*******************"
}

###############
# Environment
###############

OUTFD=$2
ZIPFILE=$3

mount /data 2>/dev/null

# Load utility functions
[ -f /data/adb/magisk/util_functions.sh ] || require_new_magisk
. /data/adb/magisk/util_functions.sh
[ $MAGISK_VER_CODE -gt 18100 ] || require_new_magisk

# Preperation for flashable zips
setup_flashable

# Mount partitions
mount_partitions

# Detect version and architecture
api_level_arch_detect

# Setup busybox and binaries
$BOOTMODE && boot_actions || recovery_actions

###############
# Preparation
###############

# Extract prop file
unzip -o "$ZIPFILE" module.prop -d $TMPDIR >&2
[ ! -f $TMPDIR/module.prop ] && abort "! Unable to extract zip file!"

$BOOTMODE && MODDIRNAME=modules_update || MODDIRNAME=modules
MODULEROOT=$NVBASE/$MODDIRNAME
MODID=`grep_prop id $TMPDIR/module.prop`
MODPATH=$MODULEROOT/$MODID
MODNAME=`grep_prop name $TMPDIR/module.prop`

# Create mod paths
rm -rf $MODPATH 2>/dev/null
mkdir -p $MODPATH

###########
# Install
###########

if is_legacy_script; then
  unzip -oj "$ZIPFILE" module.prop uninstall.sh 'common/*' -d $TMPDIR >&2

  # Load install script
  . $TMPDIR/install.sh

  # Callbacks
  print_modname
  on_install

  # Custom uninstaller
  [ -f $TMPDIR/uninstall.sh ] && cp -af $TMPDIR/uninstall.sh $MODPATH/uninstall.sh

  # Skip mount
  $SKIPMOUNT && touch $MODPATH/skip_mount

  # prop file
  $PROPFILE && cp -af $TMPDIR/system.prop $MODPATH/system.prop

  # Module info
  cp -af $TMPDIR/module.prop $MODPATH/module.prop

  # post-fs-data scripts
  $POSTFSDATA && cp -af $TMPDIR/post-fs-data.sh $MODPATH/post-fs-data.sh

  # service scripts
  $LATESTARTSERVICE && cp -af $TMPDIR/service.sh $MODPATH/service.sh

  ui_print "- Setting permissions"
  set_permissions
else
  print_modname

  ui_print "- Extracting module files"
  unzip -o "$ZIPFILE" -d $MODPATH

  # Default permissions
  set_perm_recursive $MODPATH 0 0 0755 0644

  # Load install script
  [ -f $MODPATH/install.sh ] && . $MODPATH/install.sh
fi

# Handle replace folders
for TARGET in $REPLACE; do
  ui_print "- Replace target: $TARGET"
  mktouch $MODPATH$TARGET/.replace
done

if $BOOTMODE; then
  # Update info for Magisk Manager
  mktouch $NVBASE/modules/$MODID/update
  cp -af $MODPATH/module.prop $NVBASE/modules/$MODID/module.prop
fi

# Remove stuffs that don't belong to modules
rm -rf \
$MODPATH/system/placeholder $MODPATH/install.sh \
$MODPATH/META-INF $MODPATH/README.md 2>/dev/null

##############
# Finalizing
##############

cd /
$BOOTMODE || recovery_cleanup
rm -rf $TMPDIR

ui_print "- Done"
exit 0
